codemodel: no such command available in ngspice
codemodel: no such command available in ngspice
codemodel: no such command available in ngspice
codemodel: no such command available in ngspice
codemodel: no such command available in ngspice
codemodel: no such command available in ngspice
Warning: redefinition of .subckt sky130_fd_pr__pnp_05v5_w0p68l0p68, ignored

Circuit: **.subckt ideal_bandgap_test

Scale set
Doing analysis at TEMP = 27.000000 and TNOM = 27.000000

Warning: include: has no value, DC 0 assumed
Warning: include: has no value, DC 0 assumed
No. of Data Columns : 31  
Warning: unrecognized variable - @include[current]
Warning: include: has no value, DC 0 assumed
Warning: include: has no value, DC 0 assumed
Warning: include: has no value, DC 0 assumed
Warning: include: has no value, DC 0 assumed
Warning: include: has no value, DC 0 assumed
Warning: include: has no value, DC 0 assumed
Warning: include: has no value, DC 0 assumed
Warning: include: has no value, DC 0 assumed
Warning: include: has no value, DC 0 assumed
Warning: include: has no value, DC 0 assumed
Warning: include: has no value, DC 0 assumed
Warning: include: has no value, DC 0 assumed
Warning: include: has no value, DC 0 assumed
Warning: include: has no value, DC 0 assumed
Warning: include: has no value, DC 0 assumed
Warning: include: has no value, DC 0 assumed
Warning: include: has no value, DC 0 assumed
Warning: include: has no value, DC 0 assumed
Warning: include: has no value, DC 0 assumed
Warning: include: has no value, DC 0 assumed
Warning: include: has no value, DC 0 assumed
Warning: include: has no value, DC 0 assumed
Warning: include: has no value, DC 0 assumed
Warning: include: has no value, DC 0 assumed
Warning: include: has no value, DC 0 assumed
Warning: include: has no value, DC 0 assumed
Warning: include: has no value, DC 0 assumed
Warning: include: has no value, DC 0 assumed
Warning: include: has no value, DC 0 assumed
Warning: include: has no value, DC 0 assumed
Warning: include: has no value, DC 0 assumed
Warning: include: has no value, DC 0 assumed
Warning: include: has no value, DC 0 assumed
Warning: include: has no value, DC 0 assumed
Warning: include: has no value, DC 0 assumed
Warning: include: has no value, DC 0 assumed
Warning: include: has no value, DC 0 assumed
Warning: include: has no value, DC 0 assumed
Warning: include: has no value, DC 0 assumed
Warning: include: has no value, DC 0 assumed
Warning: include: has no value, DC 0 assumed
Warning: include: has no value, DC 0 assumed
Warning: include: has no value, DC 0 assumed
Warning: include: has no value, DC 0 assumed
Warning: include: has no value, DC 0 assumed
Warning: include: has no value, DC 0 assumed
Warning: include: has no value, DC 0 assumed
Warning: include: has no value, DC 0 assumed
Warning: include: has no value, DC 0 assumed
Warning: include: has no value, DC 0 assumed
Warning: include: has no value, DC 0 assumed
Warning: include: has no value, DC 0 assumed
Warning: include: has no value, DC 0 assumed
Warning: include: has no value, DC 0 assumed
Warning: include: has no value, DC 0 assumed
Warning: include: has no value, DC 0 assumed
Warning: include: has no value, DC 0 assumed
Warning: include: has no value, DC 0 assumed
Warning: include: has no value, DC 0 assumed
Warning: include: has no value, DC 0 assumed
Warning: include: has no value, DC 0 assumed
Warning: include: has no value, DC 0 assumed
Warning: include: has no value, DC 0 assumed
Warning: include: has no value, DC 0 assumed
Warning: include: has no value, DC 0 assumed
Warning: include: has no value, DC 0 assumed
Warning: include: has no value, DC 0 assumed
Warning: include: has no value, DC 0 assumed
Warning: include: has no value, DC 0 assumed
Warning: include: has no value, DC 0 assumed
Warning: include: has no value, DC 0 assumed
Warning: include: has no value, DC 0 assumed
Warning: include: has no value, DC 0 assumed
Warning: include: has no value, DC 0 assumed
Warning: include: has no value, DC 0 assumed
Warning: include: has no value, DC 0 assumed
Warning: include: has no value, DC 0 assumed
Warning: include: has no value, DC 0 assumed
Warning: include: has no value, DC 0 assumed
Warning: include: has no value, DC 0 assumed
Warning: include: has no value, DC 0 assumed
Warning: include: has no value, DC 0 assumed
Warning: include: has no value, DC 0 assumed
Warning: include: has no value, DC 0 assumed
Warning: include: has no value, DC 0 assumed
Warning: include: has no value, DC 0 assumed
Warning: include: has no value, DC 0 assumed
Warning: include: has no value, DC 0 assumed
Warning: include: has no value, DC 0 assumed
Warning: include: has no value, DC 0 assumed
Warning: include: has no value, DC 0 assumed
Warning: include: has no value, DC 0 assumed
Warning: include: has no value, DC 0 assumed
Warning: include: has no value, DC 0 assumed
Warning: include: has no value, DC 0 assumed
Warning: include: has no value, DC 0 assumed
Warning: include: has no value, DC 0 assumed
Warning: include: has no value, DC 0 assumed
Warning: include: has no value, DC 0 assumed
Warning: include: has no value, DC 0 assumed
Warning: include: has no value, DC 0 assumed
Warning: include: has no value, DC 0 assumed

No. of Data Rows : 101

Total analysis time (seconds) = 0.004871

Total CPU time (seconds) = 42.911 

Total DRAM available = 7908.293 MB.
DRAM currently available = 1772.672 MB.
Total ngspice program size =  243.105 MB.
Resident set size =  223.473 MB.
Shared ngspice pages =    6.789 MB.
Text (code) pages =    5.105 MB.
Stack = 0 bytes.
Library pages =  217.059 MB.

